LAMMPS (29 Sep 2021 - Update 2)
# sample LAMMPS input script for diffusion of 2d LJ liquid
# mean-squared displacement via compute msd

# settings

variable	x equal 40
variable	y equal 40

variable	rho equal 0.6
variable        t equal 1.0
variable	rc equal 2.5

# problem setup

units		lj
dimension	2
atom_style	atomic
neigh_modify	delay 0 every 1

lattice         sq2 0.6
Lattice spacing in x,y,z = 1.8257419 1.8257419 1.8257419
region          simbox block 0 50 0 50 0 50
create_box      1 simbox
Created orthogonal box = (0.0000000 0.0000000 0.0000000) to (91.287093 91.287093 91.287093)
create_atoms    1 box
Created 250000 atoms

pair_style      lj/cut 2.5
pair_coeff      * * 1 1

mass            * 1.0
velocity        all create $t 97287
velocity        all create 1 97287

fix             1 all nve
fix	        2 all langevin $t $t 0.1 498094
fix	        2 all langevin 1 $t 0.1 498094
fix	        2 all langevin 1 1 0.1 498094
fix	        3 all enforce2d

# equilibration run

thermo          1000
run	        10000
  update every 1 steps, delay 0 steps, check yes
Step Temp E_pair E_mol TotEng Press
0            1   -1.7923388            0   -0.7923428   -80.428709
Averages over the last 6 of 11 rows, steps 5000 to 10000:
Temp E_pair E_mol TotEng Press
1.00137 -1.825 0 -0.823631 45.8287
Loop time of 227.319 on 8 procs for 10000 steps with 250000 atoms

unfix		2

# data gathering run

reset_timestep  0

# factor of 4 in 2 variables is for 2d

compute         msd all msd com yes
variable        twopoint equal c_msd[4]/4/(step*dt+1.0e-6)
fix             9 all vector 10 c_msd[4]
variable        fitslope equal slope(f_9)/4/(10*dt)

thermo_style	custom step temp c_msd[4] v_twopoint v_fitslope

# only need to run for 10K steps to make a good 100-frame movie

#dump	        1 all custom 1 tmp.dump id type vx vy vz

#dump		    2 all image 100 image.*.jpg type type zoom 1.6 adiam 1.2

thermo          1000
run	            100000
Step Temp c_msd[4] v_twopoint v_fitslope
0    1.0035778 6.512869e-27 1.6282172e-21        5e+20
Averages over the last 51 of 101 rows, steps 50000 to 100000:
Temp c_msd[4] v_twopoint v_fitslope
1.00342 571.148 0.378354 0.383449
Loop time of 2408.88 on 8 procs for 100000 steps with 250000 atoms
